Circuit: * C:\users\westornd\My Documents\UCL\Q7\ELEC2532\Flip_1\Warmup\base.asc

Direct Newton iteration for .op point succeeded.

Date: Sun May 24 12:29:54 2020
Total elapsed time: 0.110 seconds.

tnom = 27
temp = 27
method = trap
totiter = 32
traniter = 0
tranpoints = 0
accept = 0
rejected = 0
matrix size = 64
fillins = 39
solver = Normal
Matrix Compiler1:     283 opcodes
Matrix Compiler2:     528 opcodes
